Version 4
SHEET 1 1112 816
WIRE -256 160 -352 160
WIRE -192 160 -256 160
WIRE -48 160 -192 160
WIRE 176 160 -48 160
WIRE 368 160 272 160
WIRE 496 160 368 160
WIRE -352 176 -352 160
WIRE -256 176 -256 160
WIRE -192 176 -192 160
WIRE -48 176 -48 160
WIRE 368 176 368 160
WIRE -48 256 -48 240
WIRE 496 256 496 240
WIRE -352 272 -352 256
WIRE -256 272 -256 240
WIRE -256 272 -352 272
WIRE -192 272 -192 240
WIRE -192 272 -256 272
WIRE -256 288 -256 272
WIRE 256 304 256 288
WIRE 368 304 368 256
WIRE 368 304 256 304
WIRE -48 352 -48 336
WIRE 256 416 256 304
WIRE 144 464 128 464
WIRE 192 464 144 464
WIRE 144 480 144 464
WIRE 0 544 -32 544
WIRE 48 544 48 464
WIRE 0 560 0 544
WIRE 144 576 144 560
WIRE 256 576 256 512
WIRE 256 576 144 576
WIRE 256 608 256 576
WIRE 0 624 0 608
WIRE 0 624 -32 624
WIRE 48 704 48 624
WIRE 64 704 48 704
WIRE 160 704 144 704
WIRE 160 720 160 704
FLAG -48 352 0
FLAG 496 256 0
FLAG 256 608 0
FLAG 160 720 0
FLAG -256 288 0
SYMBOL pmos 176 208 R270
SYMATTR InstName M1
SYMATTR Value IRF7207
SYMBOL res 240 192 R0
SYMATTR InstName R1
SYMATTR Value 100R
SYMBOL res 352 160 R0
SYMATTR InstName R2
SYMATTR Value 33k
SYMBOL LED -64 176 R0
SYMATTR InstName D1
SYMATTR Value NSCW100
SYMBOL res -64 240 R0
SYMATTR InstName R3
SYMATTR Value 33k
SYMBOL npn 192 416 R0
SYMATTR InstName Q1
SYMBOL res 144 448 R90
WINDOW 0 0 56 VBottom 2
WINDOW 3 32 56 VTop 2
SYMATTR InstName R4
SYMATTR Value 33k
SYMBOL res 128 464 R0
SYMATTR InstName R5
SYMATTR Value 330k
SYMBOL voltage -32 640 R180
WINDOW 0 24 96 Left 2
WINDOW 3 24 16 Left 2
WINDOW 123 0 0 Left 0
WINDOW 39 0 0 Left 0
SYMATTR InstName V2
SYMATTR Value PULSE(0 3.3 1ms 1ms 1ms 1.5 10 2)
SYMBOL voltage 496 144 R0
WINDOW 123 0 0 Left 0
WINDOW 39 24 124 Left 2
SYMATTR InstName V3
SYMATTR Value 12
SYMATTR SpiceLine Rser=1R
SYMBOL voltage 48 704 R270
WINDOW 0 32 56 VTop 2
WINDOW 3 -32 56 VBottom 2
WINDOW 123 0 0 Left 0
WINDOW 39 -60 56 VBottom 2
SYMATTR InstName V1
SYMATTR Value 3.3
SYMATTR SpiceLine Rser=10R
SYMBOL res -368 160 R0
SYMATTR InstName R6
SYMATTR Value 24R
SYMBOL polcap -272 176 R0
SYMATTR InstName C1
SYMATTR Value 470
SYMATTR SpiceLine V=25
SYMBOL polcap -208 176 R0
SYMATTR InstName C2
SYMATTR Value 470
SYMATTR SpiceLine V=25
SYMBOL sw 48 528 R0
SYMATTR InstName S1
SYMATTR Value GPIO
TEXT -474 798 Left 2 !.tran 0 30s 900u
TEXT 256 688 Left 2 !.model GPIO SW(Ron=.1 Roff=1Meg Vt=.5 Vh=-.5 Vser=0.0)
